@<TRIPOS>MOLECULE
LIG
   82    86     1     0     0
SMALL
bcc


@<TRIPOS>ATOM
      1 O3          27.6660   -30.3590    28.5600 o       1271 LIG      -0.646100
      2 C31         26.6630   -30.0430    27.9210 c       1271 LIG       0.556100
      3 N3          25.4470   -30.4860    28.2190 ns      1271 LIG      -0.162900
      4 C32         25.1710   -31.2910    29.3970 c3      1271 LIG       0.069300
      5 C30         26.7770   -29.0930    26.7420 c3      1271 LIG      -0.021000
      6 N2          25.5520   -28.3870    26.4100 n       1271 LIG      -0.215800
      7 C20         24.9520   -28.7960    25.1300 c3      1271 LIG       0.050000
      8 C19         23.7380   -27.9340    24.7990 c3      1271 LIG       0.028000
      9 C21         25.1110   -27.3640    27.2140 c       1271 LIG       0.654500
     10 O2          25.3840   -27.2860    28.4020 o       1271 LIG      -0.636500
     11 C22         24.2940   -26.2640    26.5630 c3      1271 LIG      -0.063300
     12 C23         23.0400   -25.9130    27.3940 c3      1271 LIG       0.031900
     13 C24         21.9200   -26.9260    27.3520 ca      1271 LIG      -0.102300
     14 C29         20.7890   -26.7030    26.5720 ca      1271 LIG      -0.105500
     15 C28         19.7570   -27.6290    26.5370 ca      1271 LIG      -0.100000
     16 C27         19.8360   -28.7890    27.2860 ca      1271 LIG      -0.101000
     17 C26         20.9520   -29.0230    28.0670 ca      1271 LIG      -0.100000
     18 C25         21.9810   -28.0940    28.1090 ca      1271 LIG      -0.105500
     19 N1          23.9730   -26.5240    25.1520 n       1271 LIG      -0.186800
     20 C18         23.9250   -25.4860    24.2670 c       1271 LIG       0.602100
     21 O1          24.5370   -24.4490    24.5020 o       1271 LIG      -0.619100
     22 C17         23.0810   -25.6410    23.0190 c3      1271 LIG      -0.095400
     23 C14         23.0570   -24.4090    22.1070 c3      1271 LIG      -0.060700
     24 C13         22.2480   -23.2580    22.7150 c3      1271 LIG      -0.037900
     25 C12         22.2300   -22.0210    21.8030 c3      1271 LIG      -0.038400
     26 C15         22.5020   -24.7400    20.7250 c3      1271 LIG      -0.037900
     27 C16         22.5090   -23.5260    19.7940 c3      1271 LIG      -0.038400
     28 C11         21.7440   -22.3430    20.3860 c3      1271 LIG       0.004700
     29 N           20.2980   -22.5810    20.3570 ns      1271 LIG      -0.176900
     30 C10         19.3950   -21.6020    20.4990 c       1271 LIG       0.563100
     31 O           19.7050   -20.4120    20.6220 o       1271 LIG      -0.642100
     32 C9          17.9480   -22.0420    20.5360 c3      1271 LIG      -0.016200
     33 C8          17.2700   -21.6550    21.8160 cc      1271 LIG      -0.020600
     34 C1          16.3460   -20.6890    22.0480 cd      1271 LIG      -0.035400
     35 C           15.8390   -19.7740    20.9670 c3      1271 LIG       0.072100
     36 S           17.6870   -22.5430    23.2520 ss      1271 LIG      -0.225500
     37 C7          16.5660   -21.6230    24.2030 ca      1271 LIG       0.018900
     38 C2          15.9100   -20.6460    23.4260 ca      1271 LIG      -0.060800
     39 C6          16.3640   -21.7140    25.5810 ca      1271 LIG      -0.061000
     40 C5          15.4390   -20.8750    26.1840 ca      1271 LIG      -0.091000
     41 C4          14.7880   -19.9060    25.4430 ca      1271 LIG      -0.101000
     42 C3          15.0110   -19.7920    24.0770 ca      1271 LIG      -0.057000
     43 H301        27.4720   -28.3380    27.0460 h1      1271 LIG       0.051700
     44 H302        26.9930   -29.7090    25.8950 h1      1271 LIG       0.051700
     45 H231        23.3690   -25.8950    28.4120 hc      1271 LIG       0.047700
     46 H232        22.6400   -25.0280    26.9450 hc      1271 LIG       0.047700
     47 H29         20.7150   -25.8070    25.9930 ha      1271 LIG       0.111000
     48 H25         22.8320   -28.2770    28.7310 ha      1271 LIG       0.111000
     49 H28         18.8960   -27.4450    25.9280 ha      1271 LIG       0.103000
     50 H26         21.0220   -29.9230    28.6410 ha      1271 LIG       0.103000
     51 H27         19.0380   -29.5010    27.2610 ha      1271 LIG       0.104000
     52 H22         24.9240   -25.3990    26.5540 h1      1271 LIG       0.082700
     53 H321        26.0780   -31.4480    29.9420 h1      1271 LIG       0.013700
     54 H322        24.4640   -30.7830    30.0190 h1      1271 LIG       0.013700
     55 H323        24.7680   -32.2360    29.0970 h1      1271 LIG       0.013700
     56 H201        24.5880   -29.7920    25.2700 h1      1271 LIG       0.029200
     57 H202        25.6820   -28.5950    24.3740 h1      1271 LIG       0.029200
     58 H191        22.9440   -28.2750    25.4300 h1      1271 LIG       0.043700
     59 H192        23.6270   -27.9650    23.7350 h1      1271 LIG       0.043700
     60 H171        22.0760   -25.7650    23.3640 hc      1271 LIG       0.039700
     61 H172        23.5500   -26.4150    22.4470 hc      1271 LIG       0.039700
     62 H14         24.0750   -24.0960    22.0070 hc      1271 LIG       0.041700
     63 H131        22.7660   -22.9660    23.6050 hc      1271 LIG       0.027700
     64 H132        21.2360   -23.6020    22.7730 hc      1271 LIG       0.027700
     65 H121        21.5050   -21.3540    22.2210 hc      1271 LIG       0.035950
     66 H122        23.2490   -21.7100    21.7040 hc      1271 LIG       0.035950
     67 H151        21.4740   -24.9990    20.8700 hc      1271 LIG       0.027700
     68 H152        23.1770   -25.4500    20.2950 hc      1271 LIG       0.027700
     69 H161        23.5300   -23.2140    19.7180 hc      1271 LIG       0.035950
     70 H162        21.9720   -23.8200    18.9160 hc      1271 LIG       0.035950
     71 H11         21.9430   -21.4870    19.7760 h1      1271 LIG       0.044700
     72 H91         17.9610   -23.1120    20.5170 hc      1271 LIG       0.043200
     73 H92         17.4510   -21.4990    19.7590 hc      1271 LIG       0.043200
     74 H1          15.1210   -19.0970    21.3800 hc      1271 LIG       0.014033
     75 H2          16.6570   -19.2190    20.5570 hc      1271 LIG       0.014033
     76 H3          15.3790   -20.3550    20.1950 hc      1271 LIG       0.014033
     77 H6          16.9150   -22.4220    26.1640 ha      1271 LIG       0.111000
     78 H5          15.2280   -20.9780    27.2280 ha      1271 LIG       0.104000
     79 H4          14.1060   -19.2380    25.9260 ha      1271 LIG       0.104000
     80 H7          14.4910   -19.0440    23.5160 ha      1271 LIG       0.105000
     81 H           19.9710   -23.5170    20.2250 hn         0 LIG       0.172500
     82 H8          24.6900   -30.2560    27.6070 hn         0 LIG       0.165500
@<TRIPOS>BOND
     1     1     2 2   
     2     2     3 1   
     3     2     5 1   
     4     3     4 1   
     5     3    82 1   
     6     4    53 1   
     7     4    54 1   
     8     4    55 1   
     9     5     6 1   
    10     5    43 1   
    11     5    44 1   
    12     6     7 1   
    13     6     9 1   
    14     7     8 1   
    15     7    56 1   
    16     7    57 1   
    17     8    19 1   
    18     8    58 1   
    19     8    59 1   
    20     9    10 2   
    21     9    11 1   
    22    11    12 1   
    23    11    19 1   
    24    11    52 1   
    25    12    13 1   
    26    12    45 1   
    27    12    46 1   
    28    13    14 ar  
    29    13    18 ar  
    30    14    15 ar  
    31    14    47 1   
    32    15    16 ar  
    33    15    49 1   
    34    16    17 ar  
    35    16    51 1   
    36    17    18 ar  
    37    17    50 1   
    38    18    48 1   
    39    19    20 1   
    40    20    21 2   
    41    20    22 1   
    42    22    23 1   
    43    22    60 1   
    44    22    61 1   
    45    23    24 1   
    46    23    26 1   
    47    23    62 1   
    48    24    25 1   
    49    24    63 1   
    50    24    64 1   
    51    25    28 1   
    52    25    65 1   
    53    25    66 1   
    54    26    27 1   
    55    26    67 1   
    56    26    68 1   
    57    27    28 1   
    58    27    69 1   
    59    27    70 1   
    60    28    29 1   
    61    28    71 1   
    62    29    30 1   
    63    29    81 1   
    64    30    31 2   
    65    30    32 1   
    66    32    33 1   
    67    32    72 1   
    68    32    73 1   
    69    33    34 2   
    70    33    36 1   
    71    34    35 1   
    72    34    38 1   
    73    35    74 1   
    74    35    75 1   
    75    35    76 1   
    76    36    37 1   
    77    37    38 ar  
    78    37    39 ar  
    79    38    42 ar  
    80    39    40 ar  
    81    39    77 1   
    82    40    41 ar  
    83    40    78 1   
    84    41    42 ar  
    85    41    79 1   
    86    42    80 1   
@<TRIPOS>SUBSTRUCTURE
     1 LIG         1 TEMP              0 ****  ****    0 ROOT
